
 OpenBabel04271818103D

 40 39  0  0  0  0  0  0  0  0999 V2000
    5.0456   -0.8591   -3.8614 C   0  0  0  0  0  0  0  0  0  0  0  0
    5.7520   -2.1994   -3.7146 C   0  0  0  0  0  0  0  0  0  0  0  0
    5.2703   -3.0452   -2.5314 C   0  0  0  0  0  0  0  0  0  0  0  0
    5.4647   -2.4065   -1.1818 C   0  0  0  0  0  0  0  0  0  0  0  0
    6.5501   -2.5675   -0.4059 C   0  0  0  0  0  0  0  0  0  0  0  0
    6.7176   -1.9457    0.9561 C   0  0  0  0  0  0  0  0  0  0  0  0
    6.9402   -2.9835    2.0161 C   0  0  0  0  0  0  0  0  0  0  0  0
    8.0757   -3.0872    2.7328 C   0  0  0  0  0  0  0  0  0  0  0  0
    8.2687   -4.1131    3.7255 C   0  0  0  0  0  0  0  0  0  0  0  0
    9.4891   -4.5548    4.0844 C   0  0  0  0  0  0  0  0  0  0  0  0
    9.7115   -5.7007    5.0191 C   0  0  0  0  0  0  0  0  0  0  0  0
   10.5327   -5.2982    6.1617 N   0  0  0  0  0  0  0  0  0  0  0  0
   10.7056   -6.4192    7.0102 N   0  0  0  0  0  0  0  0  0  0  0  0
   11.8408   -6.4790    7.7740 C   0  0  0  0  0  0  0  0  0  0  0  0
   12.9597   -5.9003    7.4385 N   0  0  0  0  0  0  0  0  0  0  0  0
   11.6973   -7.2424    8.9119 N   0  0  0  0  0  0  0  0  0  0  0  0
   12.8452   -7.2992    9.7524 N   0  0  0  0  0  0  0  0  0  0  0  0
    5.4885   -0.2945   -4.6891 H   0  0  0  0  0  0  0  0  0  0  0  0
    5.1405   -0.2504   -2.9578 H   0  0  0  0  0  0  0  0  0  0  0  0
    3.9815   -0.9936   -4.0803 H   0  0  0  0  0  0  0  0  0  0  0  0
    6.8312   -2.0269   -3.6282 H   0  0  0  0  0  0  0  0  0  0  0  0
    5.5997   -2.7731   -4.6377 H   0  0  0  0  0  0  0  0  0  0  0  0
    5.7882   -4.0122   -2.5590 H   0  0  0  0  0  0  0  0  0  0  0  0
    4.2038   -3.2727   -2.6534 H   0  0  0  0  0  0  0  0  0  0  0  0
    4.6347   -1.8024   -0.8201 H   0  0  0  0  0  0  0  0  0  0  0  0
    7.3882   -3.1611   -0.7681 H   0  0  0  0  0  0  0  0  0  0  0  0
    5.8321   -1.3591    1.2306 H   0  0  0  0  0  0  0  0  0  0  0  0
    7.5600   -1.2450    0.9171 H   0  0  0  0  0  0  0  0  0  0  0  0
    6.1307   -3.6919    2.1745 H   0  0  0  0  0  0  0  0  0  0  0  0
    8.8960   -2.3982    2.5505 H   0  0  0  0  0  0  0  0  0  0  0  0
    7.3798   -4.5575    4.1645 H   0  0  0  0  0  0  0  0  0  0  0  0
   10.3780   -4.1399    3.6151 H   0  0  0  0  0  0  0  0  0  0  0  0
   10.2267   -6.4945    4.4620 H   0  0  0  0  0  0  0  0  0  0  0  0
    8.7532   -6.1107    5.3628 H   0  0  0  0  0  0  0  0  0  0  0  0
   10.0586   -4.5442    6.6671 H   0  0  0  0  0  0  0  0  0  0  0  0
    9.8790   -6.8835    7.3853 H   0  0  0  0  0  0  0  0  0  0  0  0
   12.7382   -5.4412    6.5482 H   0  0  0  0  0  0  0  0  0  0  0  0
   10.8225   -7.0809    9.4148 H   0  0  0  0  0  0  0  0  0  0  0  0
   13.4662   -6.5292    9.4459 H   0  0  0  0  0  0  0  0  0  0  0  0
   13.3868   -8.1248    9.4808 H   0  0  0  0  0  0  0  0  0  0  0  0
  1  2  1  0  0  0  0
  1 18  1  0  0  0  0
  1 19  1  0  0  0  0
  1 20  1  0  0  0  0
  2  3  1  0  0  0  0
  2 21  1  0  0  0  0
  2 22  1  0  0  0  0
  3  4  1  0  0  0  0
  3 23  1  0  0  0  0
  3 24  1  0  0  0  0
  4  5  2  3  0  0  0
  4 25  1  0  0  0  0
  5  6  1  0  0  0  0
  5 26  1  0  0  0  0
  6  7  1  0  0  0  0
  6 27  1  0  0  0  0
  6 28  1  0  0  0  0
  7  8  2  3  0  0  0
  7 29  1  0  0  0  0
  8  9  1  0  0  0  0
  8 30  1  0  0  0  0
  9 10  2  3  0  0  0
  9 31  1  0  0  0  0
 10 11  1  0  0  0  0
 10 32  1  0  0  0  0
 11 12  1  0  0  0  0
 11 33  1  0  0  0  0
 11 34  1  0  0  0  0
 12 13  1  0  0  0  0
 12 35  1  0  0  0  0
 13 14  1  0  0  0  0
 13 36  1  0  0  0  0
 14 15  2  0  0  0  0
 14 16  1  0  0  0  0
 15 37  1  0  0  0  0
 16 17  1  0  0  0  0
 16 38  1  0  0  0  0
 17 39  1  0  0  0  0
 17 40  1  0  0  0  0
M  END
$$$$
