
 OpenBabel04271818103D

 37 38  0  0  0  0  0  0  0  0999 V2000
   12.7054    1.9871   -1.1702 C   0  0  0  0  0  0  0  0  0  0  0  0
   11.3156    1.6917   -0.6262 C   0  0  0  0  0  0  0  0  0  0  0  0
   11.2417    0.3228    0.0516 C   0  0  0  0  0  0  0  0  0  0  0  0
    9.8566    0.0459    0.5712 C   0  0  0  0  0  0  0  0  0  0  0  0
    9.0994   -0.9796    0.1490 C   0  0  0  0  0  0  0  0  0  0  0  0
    7.7115   -1.2770    0.6463 C   0  0  0  0  0  0  0  0  0  0  0  0
    7.3740   -2.7447    0.7043 C   0  0  0  0  0  0  0  0  0  0  0  0
    8.2430   -3.7451    0.9209 C   0  0  0  0  0  0  0  0  0  0  0  0
    7.8308   -5.1225    1.0405 C   0  0  0  0  0  0  0  0  0  0  0  0
    8.6884   -6.1267    1.2741 C   0  0  0  0  0  0  0  0  0  0  0  0
    8.1486   -7.4894    1.4048 C   0  0  0  0  0  0  0  0  0  0  0  0
    6.8961   -7.8642    1.3219 N   0  0  0  0  0  0  0  0  0  0  0  0
    6.8574   -9.2280    1.5425 N   0  0  0  0  0  0  0  0  0  0  0  0
    6.3468   -9.7197    0.8003 H   0  0  0  0  0  0  0  0  0  0  0  0
    8.1710   -9.6822    1.6257 N   0  0  0  0  0  0  0  0  0  0  0  0
    8.5948  -10.9892    1.7722 C   0  0  0  0  0  0  0  0  0  0  0  0
    7.7982  -11.9374    1.7619 O   0  0  0  0  0  0  0  0  0  0  0  0
    9.9691  -11.1809    1.9085 N   0  0  0  0  0  0  0  0  0  0  0  0
   10.7685  -10.1899    1.8987 N   0  0  0  0  0  0  0  0  0  0  0  0
   10.3226   -8.8988    1.7407 C   0  0  0  0  0  0  0  0  0  0  0  0
    9.0291   -8.6419    1.6067 C   0  0  0  0  0  0  0  0  0  0  0  0
   12.7260    2.9828   -1.6252 H   0  0  0  0  0  0  0  0  0  0  0  0
   12.9942    1.2600   -1.9359 H   0  0  0  0  0  0  0  0  0  0  0  0
   13.4547    1.9648   -0.3726 H   0  0  0  0  0  0  0  0  0  0  0  0
   10.5927    1.7427   -1.4495 H   0  0  0  0  0  0  0  0  0  0  0  0
   11.0430    2.4755    0.0905 H   0  0  0  0  0  0  0  0  0  0  0  0
   11.9418    0.2858    0.8947 H   0  0  0  0  0  0  0  0  0  0  0  0
   11.5536   -0.4576   -0.6538 H   0  0  0  0  0  0  0  0  0  0  0  0
    9.4678    0.7335    1.3203 H   0  0  0  0  0  0  0  0  0  0  0  0
    9.4921   -1.6411   -0.6208 H   0  0  0  0  0  0  0  0  0  0  0  0
    6.9985   -0.7866   -0.0271 H   0  0  0  0  0  0  0  0  0  0  0  0
    7.5518   -0.8592    1.6484 H   0  0  0  0  0  0  0  0  0  0  0  0
    6.3142   -2.9716    0.5891 H   0  0  0  0  0  0  0  0  0  0  0  0
    9.2997   -3.5241    1.0519 H   0  0  0  0  0  0  0  0  0  0  0  0
    6.7634   -5.3265    0.9555 H   0  0  0  0  0  0  0  0  0  0  0  0
    9.7538   -5.9659    1.3734 H   0  0  0  0  0  0  0  0  0  0  0  0
   11.0788   -8.1267    1.7310 H   0  0  0  0  0  0  0  0  0  0  0  0
  1  2  1  0  0  0  0
  1 22  1  0  0  0  0
  1 23  1  0  0  0  0
  1 24  1  0  0  0  0
  2  3  1  0  0  0  0
  2 25  1  0  0  0  0
  2 26  1  0  0  0  0
  3  4  1  0  0  0  0
  3 27  1  0  0  0  0
  3 28  1  0  0  0  0
  4  5  2  3  0  0  0
  4 29  1  0  0  0  0
  5  6  1  0  0  0  0
  5 30  1  0  0  0  0
  6  7  1  0  0  0  0
  6 31  1  0  0  0  0
  6 32  1  0  0  0  0
  7  8  2  3  0  0  0
  7 33  1  0  0  0  0
  8  9  1  0  0  0  0
  8 34  1  0  0  0  0
  9 10  2  3  0  0  0
  9 35  1  0  0  0  0
 10 11  1  0  0  0  0
 10 36  1  0  0  0  0
 11 12  2  0  0  0  0
 11 21  1  0  0  0  0
 12 13  1  0  0  0  0
 13 14  1  0  0  0  0
 13 15  1  0  0  0  0
 15 16  1  0  0  0  0
 15 21  1  0  0  0  0
 16 17  2  0  0  0  0
 16 18  1  0  0  0  0
 18 19  2  0  0  0  0
 19 20  1  0  0  0  0
 20 21  2  0  0  0  0
 20 37  1  0  0  0  0
M  END
$$$$
