
 OpenBabel04271818103D

 34 35  0  0  0  0  0  0  0  0999 V2000
    2.8978   -0.4204   -1.3576 C   0  0  0  0  0  0  0  0  0  0  0  0
    2.5599   -0.5608    0.1194 C   0  0  0  0  0  0  0  0  0  0  0  0
    3.2508   -1.7488    0.7934 C   0  0  0  0  0  0  0  0  0  0  0  0
    4.7522   -1.6965    0.7400 C   0  0  0  0  0  0  0  0  0  0  0  0
    5.5247   -1.1591    1.6990 C   0  0  0  0  0  0  0  0  0  0  0  0
    7.0254   -1.1354    1.6524 C   0  0  0  0  0  0  0  0  0  0  0  0
    7.6298   -1.8221    2.8475 C   0  0  0  0  0  0  0  0  0  0  0  0
    8.4523   -1.2228    3.7218 C   0  0  0  0  0  0  0  0  0  0  0  0
    9.0653   -1.9245    4.8307 C   0  0  0  0  0  0  0  0  0  0  0  0
    9.8700   -1.3310    5.7232 C   0  0  0  0  0  0  0  0  0  0  0  0
   10.4616   -2.0625    6.7937 C   0  0  0  0  0  0  0  0  0  0  0  0
   11.2636   -1.5387    7.7286 N   0  0  0  0  0  0  0  0  0  0  0  0
   11.5541   -2.5958    8.5192 C   0  0  0  0  0  0  0  0  0  0  0  0
   12.3072   -2.8315    9.6778 C   0  0  0  0  0  0  0  0  0  0  0  0
   12.2897   -4.1040   10.1189 N   0  0  0  0  0  0  0  0  0  0  0  0
   11.3152   -5.0089    9.0610 S   0  0  0  0  0  0  0  0  0  0  0  0
   10.9617   -3.7132    8.0841 C   0  0  0  0  0  0  0  0  0  0  0  0
   10.2489   -3.4403    6.9799 O   0  0  0  0  0  0  0  0  0  0  0  0
    2.2178    0.2930   -1.8343 H   0  0  0  0  0  0  0  0  0  0  0  0
    2.8052   -1.3781   -1.8792 H   0  0  0  0  0  0  0  0  0  0  0  0
    3.9182   -0.0486   -1.4932 H   0  0  0  0  0  0  0  0  0  0  0  0
    1.4751   -0.6885    0.2208 H   0  0  0  0  0  0  0  0  0  0  0  0
    2.8162    0.3700    0.6398 H   0  0  0  0  0  0  0  0  0  0  0  0
    2.9219   -2.6806    0.3158 H   0  0  0  0  0  0  0  0  0  0  0  0
    2.9154   -1.8119    1.8359 H   0  0  0  0  0  0  0  0  0  0  0  0
    5.2155   -2.1538   -0.1324 H   0  0  0  0  0  0  0  0  0  0  0  0
    5.0576   -0.6891    2.5625 H   0  0  0  0  0  0  0  0  0  0  0  0
    7.3635   -0.0948    1.5894 H   0  0  0  0  0  0  0  0  0  0  0  0
    7.3935   -1.6412    0.7509 H   0  0  0  0  0  0  0  0  0  0  0  0
    7.3836   -2.8773    2.9604 H   0  0  0  0  0  0  0  0  0  0  0  0
    8.6947   -0.1687    3.6002 H   0  0  0  0  0  0  0  0  0  0  0  0
    8.8503   -2.9912    4.9086 H   0  0  0  0  0  0  0  0  0  0  0  0
   10.0991   -0.2712    5.6678 H   0  0  0  0  0  0  0  0  0  0  0  0
   12.8840   -2.1110   10.2399 H   0  0  0  0  0  0  0  0  0  0  0  0
  1  2  1  0  0  0  0
  1 19  1  0  0  0  0
  1 20  1  0  0  0  0
  1 21  1  0  0  0  0
  2  3  1  0  0  0  0
  2 22  1  0  0  0  0
  2 23  1  0  0  0  0
  3  4  1  0  0  0  0
  3 24  1  0  0  0  0
  3 25  1  0  0  0  0
  4  5  2  3  0  0  0
  4 26  1  0  0  0  0
  5  6  1  0  0  0  0
  5 27  1  0  0  0  0
  6  7  1  0  0  0  0
  6 28  1  0  0  0  0
  6 29  1  0  0  0  0
  7  8  2  3  0  0  0
  7 30  1  0  0  0  0
  8  9  1  0  0  0  0
  8 31  1  0  0  0  0
  9 10  2  3  0  0  0
  9 32  1  0  0  0  0
 10 11  1  0  0  0  0
 10 33  1  0  0  0  0
 11 12  2  0  0  0  0
 11 18  1  0  0  0  0
 12 13  1  0  0  0  0
 13 14  1  0  0  0  0
 13 17  2  0  0  0  0
 14 15  2  0  0  0  0
 14 34  1  0  0  0  0
 15 16  1  0  0  0  0
 16 17  1  0  0  0  0
 17 18  1  0  0  0  0
M  END
$$$$
