
 OpenBabel04271818103D

 35 36  0  0  0  0  0  0  0  0999 V2000
    3.4307   -4.2793   -1.4545 C   0  0  0  0  0  0  0  0  0  0  0  0
    4.6291   -3.3501   -1.3355 C   0  0  0  0  0  0  0  0  0  0  0  0
    5.1330   -2.8868   -2.7028 C   0  0  0  0  0  0  0  0  0  0  0  0
    6.3212   -1.9766   -2.5660 C   0  0  0  0  0  0  0  0  0  0  0  0
    6.2407   -0.6362   -2.5284 C   0  0  0  0  0  0  0  0  0  0  0  0
    7.4290    0.2691   -2.3708 C   0  0  0  0  0  0  0  0  0  0  0  0
    7.5668    1.2064   -3.5348 C   0  0  0  0  0  0  0  0  0  0  0  0
    8.6430    1.2486   -4.3358 C   0  0  0  0  0  0  0  0  0  0  0  0
    8.7445    2.1662   -5.4458 C   0  0  0  0  0  0  0  0  0  0  0  0
    9.8061    2.2228   -6.2649 C   0  0  0  0  0  0  0  0  0  0  0  0
    9.9096    3.1290   -7.3758 C   0  0  0  0  0  0  0  0  0  0  0  0
   11.2157    3.4623   -7.8131 O   0  0  0  0  0  0  0  0  0  0  0  0
   11.0005    4.3665   -8.8946 N   0  0  0  0  0  0  0  0  0  0  0  0
   11.6033    4.2259   -9.6993 H   0  0  0  0  0  0  0  0  0  0  0  0
    9.6623    4.3476   -9.1246 C   0  0  0  0  0  0  0  0  0  0  0  0
    8.8277    4.7427  -10.0081 N   0  0  0  0  0  0  0  0  0  0  0  0
    7.5825    4.3102   -9.5328 C   0  0  0  0  0  0  0  0  0  0  0  0
    6.5186    4.5272  -10.1010 O   0  0  0  0  0  0  0  0  0  0  0  0
    7.6251    3.5848   -8.3272 O   0  0  0  0  0  0  0  0  0  0  0  0
    8.9438    3.6311   -8.1401 C   0  0  0  0  0  0  0  0  0  0  0  0
    3.0881   -4.5802   -0.4591 H   0  0  0  0  0  0  0  0  0  0  0  0
    3.6868   -5.1852   -2.0127 H   0  0  0  0  0  0  0  0  0  0  0  0
    2.5968   -3.7845   -1.9627 H   0  0  0  0  0  0  0  0  0  0  0  0
    5.4300   -3.8661   -0.7924 H   0  0  0  0  0  0  0  0  0  0  0  0
    4.3411   -2.4803   -0.7323 H   0  0  0  0  0  0  0  0  0  0  0  0
    4.3276   -2.3823   -3.2501 H   0  0  0  0  0  0  0  0  0  0  0  0
    5.4270   -3.7520   -3.3098 H   0  0  0  0  0  0  0  0  0  0  0  0
    7.2943   -2.4591   -2.5004 H   0  0  0  0  0  0  0  0  0  0  0  0
    5.2643   -0.1574   -2.5798 H   0  0  0  0  0  0  0  0  0  0  0  0
    8.3455   -0.3188   -2.2396 H   0  0  0  0  0  0  0  0  0  0  0  0
    7.3040    0.8606   -1.4563 H   0  0  0  0  0  0  0  0  0  0  0  0
    6.7343    1.8872   -3.7032 H   0  0  0  0  0  0  0  0  0  0  0  0
    9.4752    0.5703   -4.1600 H   0  0  0  0  0  0  0  0  0  0  0  0
    7.8983    2.8339   -5.6012 H   0  0  0  0  0  0  0  0  0  0  0  0
   10.6602    1.5681   -6.1051 H   0  0  0  0  0  0  0  0  0  0  0  0
  1  2  1  0  0  0  0
  1 21  1  0  0  0  0
  1 22  1  0  0  0  0
  1 23  1  0  0  0  0
  2  3  1  0  0  0  0
  2 24  1  0  0  0  0
  2 25  1  0  0  0  0
  3  4  1  0  0  0  0
  3 26  1  0  0  0  0
  3 27  1  0  0  0  0
  4  5  2  3  0  0  0
  4 28  1  0  0  0  0
  5  6  1  0  0  0  0
  5 29  1  0  0  0  0
  6  7  1  0  0  0  0
  6 30  1  0  0  0  0
  6 31  1  0  0  0  0
  7  8  2  3  0  0  0
  7 32  1  0  0  0  0
  8  9  1  0  0  0  0
  8 33  1  0  0  0  0
  9 10  2  3  0  0  0
  9 34  1  0  0  0  0
 10 11  1  0  0  0  0
 10 35  1  0  0  0  0
 11 12  1  0  0  0  0
 11 20  2  0  0  0  0
 12 13  1  0  0  0  0
 13 14  1  0  0  0  0
 13 15  1  0  0  0  0
 15 16  2  0  0  0  0
 15 20  1  0  0  0  0
 16 17  1  0  0  0  0
 17 18  2  0  0  0  0
 17 19  1  0  0  0  0
 19 20  1  0  0  0  0
M  END
$$$$
